Version 4
SHEET 1 1828 680
WIRE 1488 -32 1344 -32
WIRE 1504 -32 1488 -32
WIRE 1488 0 1488 -32
WIRE 448 32 400 32
WIRE 592 32 528 32
WIRE -896 48 -1072 48
WIRE 80 48 -96 48
WIRE 944 48 768 48
WIRE -944 80 -992 80
WIRE -544 80 -592 80
WIRE -416 80 -480 80
WIRE -400 80 -416 80
WIRE 32 80 -16 80
WIRE 496 80 480 80
WIRE 896 80 848 80
WIRE 1344 80 1344 -32
WIRE 1264 96 1264 64
WIRE 1312 96 1264 96
WIRE -992 112 -992 80
WIRE -416 112 -416 80
WIRE -16 112 -16 80
WIRE 480 112 480 80
WIRE 848 112 848 80
WIRE 1488 112 1488 80
WIRE 1488 112 1376 112
WIRE -1072 128 -1072 48
WIRE -1024 128 -1072 128
WIRE -96 128 -96 48
WIRE -48 128 -96 128
WIRE 272 128 256 128
WIRE 400 128 400 32
WIRE 400 128 352 128
WIRE 448 128 400 128
WIRE 768 128 768 48
WIRE 816 128 768 128
WIRE 1152 128 1136 128
WIRE 1264 128 1232 128
WIRE 1312 128 1264 128
WIRE -896 144 -896 48
WIRE -896 144 -960 144
WIRE 80 144 80 48
WIRE 80 144 16 144
WIRE 592 144 592 32
WIRE 592 144 512 144
WIRE 944 144 944 48
WIRE 944 144 880 144
WIRE -1024 160 -1072 160
WIRE -48 160 -96 160
WIRE 448 160 416 160
WIRE 816 160 768 160
WIRE 416 176 416 160
WIRE 1264 208 1264 128
WIRE 1312 208 1264 208
WIRE 1488 208 1488 112
WIRE 1488 208 1392 208
WIRE -416 240 -416 192
WIRE -976 432 -976 416
WIRE -864 432 -864 416
WIRE -1280 512 -1280 480
WIRE -1120 512 -1120 496
WIRE -1472 528 -1472 496
WIRE -1280 528 -1280 512
FLAG 1504 -32 VCC
FLAG 1264 64 VBias
FLAG -1120 592 0
FLAG -864 512 0
FLAG -1120 496 Vin9
FLAG -864 416 VBias
FLAG -976 512 0
FLAG -976 416 VCC
FLAG 1344 144 0
FLAG -416 240 0
FLAG -592 80 VBuf1
FLAG -400 80 Vf
FLAG 1136 128 VBuf3
FLAG -992 176 0
FLAG -944 80 VCC
FLAG -896 144 VBuf1
FLAG -1072 160 Vin
FLAG -16 176 0
FLAG 32 80 VCC
FLAG 80 144 VBuf2
FLAG -96 160 Vf
FLAG 496 80 VCC
FLAG 416 176 VBuf2
FLAG 592 144 Va
FLAG 848 176 0
FLAG 896 80 VCC
FLAG 944 144 VBuf3
FLAG 768 160 Va
FLAG 480 176 0
FLAG 256 128 0
FLAG 1488 112 VComp
FLAG -1280 592 0
FLAG -1280 480 Vin_
FLAG -1472 608 0
FLAG -1472 496 Vin
SYMBOL res 1248 112 R90
WINDOW 0 0 56 VBottom 2
WINDOW 3 32 56 VTop 2
SYMATTR InstName R1
SYMATTR Value 1k
SYMBOL res 1408 192 R90
WINDOW 0 0 56 VBottom 2
WINDOW 3 32 56 VTop 2
SYMATTR InstName R2
SYMATTR Value 100k
SYMBOL res 1472 -16 R0
SYMATTR InstName R3
SYMATTR Value 3.3k
SYMBOL voltage -864 416 R0
WINDOW 123 0 0 Left 0
WINDOW 39 0 0 Left 0
SYMATTR InstName V1
SYMATTR Value 3
SYMBOL voltage -1120 496 R0
WINDOW 123 0 0 Left 0
WINDOW 39 24 124 Left 2
SYMATTR SpiceLine Rser=1000k
SYMATTR InstName V2
SYMATTR Value PWL file="A:\Projects\compsys301-pathfinding-robot\hardware\simulations\PWL Sources\on-white-2s.txt"
SYMBOL voltage -976 416 R0
WINDOW 123 0 0 Left 0
WINDOW 39 0 0 Left 0
SYMATTR InstName V3
SYMATTR Value 5
SYMBOL OpAmps\\UniversalOpAmp4 1344 112 R0
SYMATTR InstName U2
SYMBOL res -432 96 R0
SYMATTR InstName R4
SYMATTR Value 10k
SYMBOL cap -480 64 R90
WINDOW 0 0 32 VBottom 2
WINDOW 3 32 32 VTop 2
SYMATTR InstName C1
SYMATTR Value 1.6µ
SYMBOL OpAmps\\UniversalOpAmp4 -992 144 R0
SYMATTR InstName U1
SYMBOL OpAmps\\UniversalOpAmp4 -16 144 R0
SYMATTR InstName U3
SYMBOL OpAmps\\UniversalOpAmp4 480 144 R0
SYMATTR InstName U4
SYMBOL res 544 16 R90
WINDOW 0 0 56 VBottom 2
WINDOW 3 32 56 VTop 2
SYMATTR InstName R5
SYMATTR Value 100k
SYMBOL res 368 112 R90
WINDOW 0 0 56 VBottom 2
WINDOW 3 32 56 VTop 2
SYMATTR InstName R6
SYMATTR Value 25k
SYMBOL OpAmps\\UniversalOpAmp4 848 144 R0
SYMATTR InstName U5
SYMBOL voltage -1280 496 R0
WINDOW 123 0 0 Left 0
WINDOW 39 0 0 Left 0
SYMATTR InstName V4
SYMATTR Value PWL file="A:\Projects\compsys301-pathfinding-robot\hardware\simulations\PWL Sources\on-black-2s.txt"
SYMBOL voltage -1472 512 R0
WINDOW 123 0 0 Left 0
WINDOW 39 0 0 Left 0
SYMATTR InstName V5
SYMATTR Value PWL file="A:\Projects\compsys301-pathfinding-robot\hardware\simulations\PWL Sources\on-green-2s.txt"
TEXT 1072 -72 Left 2 ;PWM regenerator
TEXT -768 520 Left 2 !.tran 0 250m 0 0.01
TEXT -752 -24 Left 2 ;High pass filter (Cf = 10Hz)
TEXT -1144 -24 Left 2 ;Signal Buffer (Stage 1)
TEXT -168 -24 Left 2 ;Signal Buffer (Stage 2)
TEXT 696 -24 Left 2 ;Signal Buffer (Stage 3)
TEXT 176 -56 Left 2 ;Signal amplification
TEXT -1400 520 Left 2 ;Black
TEXT -1080 552 Left 2 ;White
TEXT -1600 536 Left 2 ;Green
RECTANGLE Normal 1584 256 1072 -48 2
RECTANGLE Normal -240 304 -752 0 2
RECTANGLE Normal -832 256 -1152 0 2
RECTANGLE Normal 144 256 -176 0 2
RECTANGLE Normal 1008 256 688 0 2
RECTANGLE Normal 640 256 176 -32 2
