Version 4
SHEET 1 880 680
WIRE 320 16 176 16
WIRE 336 16 320 16
WIRE 320 48 320 16
WIRE 176 128 176 16
WIRE 96 144 96 112
WIRE 144 144 96 144
WIRE 320 160 320 128
WIRE 320 160 208 160
WIRE -16 176 -32 176
WIRE 96 176 64 176
WIRE 144 176 96 176
WIRE 96 256 96 176
WIRE 144 256 96 256
WIRE 320 256 320 160
WIRE 320 256 224 256
FLAG 336 16 VCC
FLAG 96 112 VBias
FLAG -32 176 Vin
SYMBOL OpAmps\\opamp2 176 96 R0
SYMATTR InstName U1
SYMBOL res 80 160 R90
WINDOW 0 0 56 VBottom 2
WINDOW 3 32 56 VTop 2
SYMATTR InstName R1
SYMBOL res 240 240 R90
WINDOW 0 0 56 VBottom 2
WINDOW 3 32 56 VTop 2
SYMATTR InstName R2
SYMBOL res 304 32 R0
SYMATTR InstName R3
TEXT -96 -24 Left 2 ;PWM regenerator
RECTANGLE Normal 416 304 -96 0 2
