Version 4
SHEET 1 880 680
WIRE 320 16 176 16
WIRE 336 16 320 16
WIRE 320 48 320 16
WIRE 176 128 176 16
WIRE 96 144 96 112
WIRE 144 144 96 144
WIRE 320 160 320 128
WIRE 320 160 208 160
WIRE -448 176 -448 160
WIRE -240 176 -240 160
WIRE -16 176 -32 176
WIRE 96 176 64 176
WIRE 144 176 96 176
WIRE 96 256 96 176
WIRE 144 256 96 256
WIRE 320 256 320 160
WIRE 320 256 224 256
WIRE -736 416 -736 400
FLAG 336 16 VCC
FLAG 96 112 VBias
FLAG -32 176 Vin
FLAG -736 496 0
FLAG -240 256 0
FLAG -736 400 Vin
FLAG -240 160 VBias
FLAG -448 256 0
FLAG -448 160 VCC
FLAG 176 192 0
SYMBOL res 80 160 R90
WINDOW 0 0 56 VBottom 2
WINDOW 3 32 56 VTop 2
SYMATTR InstName R1
SYMATTR Value 1k
SYMBOL res 240 240 R90
WINDOW 0 0 56 VBottom 2
WINDOW 3 32 56 VTop 2
SYMATTR InstName R2
SYMATTR Value 100k
SYMBOL res 304 32 R0
SYMATTR InstName R3
SYMATTR Value 3.3k
SYMBOL voltage -240 160 R0
WINDOW 123 0 0 Left 0
WINDOW 39 0 0 Left 0
SYMATTR InstName V1
SYMATTR Value 0.3
SYMBOL voltage -736 400 R0
WINDOW 123 0 0 Left 0
WINDOW 39 0 0 Left 0
SYMATTR InstName V2
SYMATTR Value PWL file="C:\Users\AKLbc\Desktop\301\hardware\simulations\PWL Sources\left-off-white-2s.txt"
SYMBOL voltage -448 160 R0
WINDOW 123 0 0 Left 0
WINDOW 39 0 0 Left 0
SYMATTR InstName V3
SYMATTR Value 5
SYMBOL OpAmps\\UniversalOpAmp4 176 160 R0
SYMATTR InstName U2
TEXT -96 -24 Left 2 ;PWM regenerator
TEXT -770 520 Left 2 !.tran 0 250m 0 0.01
RECTANGLE Normal 416 304 -96 0 2
